
 OpenBabel08252315103D

 33 36  0  0  0  0  0  0  0  0999 V2000
  -49.8090    1.2180  -18.0820 C   0  0  0  0  0  0  0  0  0  0  0  0
  -48.9910    0.6100  -19.0310 C   0  0  0  0  0  0  0  0  0  0  0  0
  -49.4790    0.4650  -20.3320 C   0  0  0  0  0  3  0  0  0  0  0  0
  -50.7450    0.9880  -20.7130 C   0  0  0  0  0  0  0  0  0  0  0  0
  -51.5090    1.6780  -19.7620 C   0  0  0  0  0  0  0  0  0  0  0  0
  -51.0340    1.7740  -18.4640 C   0  0  0  0  0  2  0  0  0  0  0  0
  -52.6810    2.2450  -20.0450 N   0  0  0  0  0  0  0  0  0  0  0  0
  -53.1170    2.1270  -21.3020 C   0  0  0  0  0  2  0  0  0  0  0  0
  -52.4900    1.4850  -22.2900 N   0  0  0  0  0  0  0  0  0  0  0  0
  -51.3180    0.8940  -21.9970 C   0  0  0  0  0  0  0  0  0  0  0  0
  -50.6530    0.1620  -23.0060 N   0  0  0  0  0  0  0  0  0  0  0  0
  -50.2860   -0.7170  -22.6610 H   0  0  0  0  0  0  0  0  0  0  0  0
  -50.8060    0.2060  -24.4050 C   0  0  0  0  0  0  0  0  0  0  0  0
  -50.7360    1.4460  -25.0600 C   0  0  0  0  0  3  0  0  0  0  0  0
  -50.8920    1.5310  -26.4470 C   0  0  0  0  0  0  0  0  0  0  0  0
  -51.1330    0.3830  -27.1930 C   0  0  0  0  0  0  0  0  0  0  0  0
  -51.2240   -0.8520  -26.5630 C   0  0  0  0  0  3  0  0  0  0  0  0
  -51.0650   -0.9360  -25.1760 C   0  0  0  0  0  3  0  0  0  0  0  0
  -51.2880    0.4440  -28.5220 F   0  0  0  0  0  0  0  0  0  0  0  0
  -50.7840    3.0700  -27.2130 Cl  0  0  0  0  0  0  0  0  0  0  0  0
  -50.5310    1.8570  -16.0050 C   0  0  0  0  0  1  0  0  0  0  0  0
  -49.4360    1.3340  -16.7690 O   0  0  0  0  0  0  0  0  0  0  0  0
  -47.7380    0.0980  -18.8390 O   0  0  0  0  0  0  0  0  0  0  0  0
  -47.5420   -0.8350  -17.7720 C   0  0  0  0  0  2  0  0  0  0  0  0
  -48.1460   -2.2040  -18.0860 C   0  0  0  0  0  2  0  0  0  0  0  0
  -47.3240   -3.0600  -19.0430 C   0  0  0  0  0  2  0  0  0  0  0  0
  -47.8460   -3.1630  -20.4560 N   0  0  0  0  0  4  0  0  0  0  0  0
  -49.3680   -3.1420  -20.6030 C   0  0  0  0  0  2  0  0  0  0  0  0
  -49.7380   -3.4850  -22.0510 C   0  0  0  0  0  2  0  0  0  0  0  0
  -49.1180   -2.5790  -22.9710 O   0  0  0  0  0  0  0  0  0  0  0  0
  -47.6900   -2.6060  -22.8800 C   0  0  0  0  0  2  0  0  0  0  0  0
  -47.2200   -2.2170  -21.4710 C   0  0  0  0  0  2  0  0  0  0  0  0
  -47.5610   -4.1030  -20.7630 H   0  0  0  0  0  0  0  0  0  0  0  0
  1 22  1  0  0  0  0
  2 23  1  0  0  0  0
  2  1  2  0  0  0  0
  3  2  1  0  0  0  0
  4  3  2  0  0  0  0
  4  5  1  0  0  0  0
  5  6  1  0  0  0  0
  6  1  1  0  0  0  0
  7  5  2  0  0  0  0
  8  7  1  0  0  0  0
  9 10  2  0  0  0  0
  9  8  1  0  0  0  0
 10  4  1  0  0  0  0
 11 12  1  0  0  0  0
 11 10  1  0  0  0  0
 13 11  1  0  0  0  0
 14 13  1  0  0  0  0
 15 14  2  0  0  0  0
 16 17  2  0  0  0  0
 16 15  1  0  0  0  0
 17 18  1  0  0  0  0
 18 13  2  0  0  0  0
 19 16  1  0  0  0  0
 20 15  1  0  0  0  0
 22 21  1  0  0  0  0
 23 24  1  0  0  0  0
 25 24  1  0  0  0  0
 26 25  1  0  0  0  0
 27 26  1  0  0  0  0
 28 27  1  0  0  0  0
 29 28  1  0  0  0  0
 30 31  1  0  0  0  0
 30 29  1  0  0  0  0
 31 32  1  0  0  0  0
 32 27  1  0  0  0  0
 33 27  1  0  0  0  0
M  END
>  <minimizedAffinity>
-8.52014351

$$$$

 OpenBabel08252315103D

 33 36  0  0  0  0  0  0  0  0999 V2000
  -50.0800    1.1760  -18.1620 C   0  0  0  0  0  0  0  0  0  0  0  0
  -49.2870    0.4970  -19.0840 C   0  0  0  0  0  0  0  0  0  0  0  0
  -49.7490    0.3810  -20.3970 C   0  0  0  0  0  3  0  0  0  0  0  0
  -50.9570    1.0000  -20.8170 C   0  0  0  0  0  0  0  0  0  0  0  0
  -51.6900    1.7560  -19.8920 C   0  0  0  0  0  0  0  0  0  0  0  0
  -51.2460    1.8240  -18.5820 C   0  0  0  0  0  2  0  0  0  0  0  0
  -52.8060    2.4130  -20.2110 N   0  0  0  0  0  0  0  0  0  0  0  0
  -53.2140    2.3190  -21.4800 C   0  0  0  0  0  2  0  0  0  0  0  0
  -52.6130    1.6210  -22.4460 N   0  0  0  0  0  0  0  0  0  0  0  0
  -51.5010    0.9420  -22.1170 C   0  0  0  0  0  0  0  0  0  0  0  0
  -50.8680    0.1500  -23.1020 N   0  0  0  0  0  0  0  0  0  0  0  0
  -50.5820   -0.7520  -22.7410 H   0  0  0  0  0  0  0  0  0  0  0  0
  -50.9780    0.1950  -24.5050 C   0  0  0  0  0  0  0  0  0  0  0  0
  -50.8550    1.4310  -25.1600 C   0  0  0  0  0  3  0  0  0  0  0  0
  -50.9670    1.5180  -26.5510 C   0  0  0  0  0  0  0  0  0  0  0  0
  -51.2160    0.3740  -27.3010 C   0  0  0  0  0  0  0  0  0  0  0  0
  -51.3600   -0.8560  -26.6730 C   0  0  0  0  0  3  0  0  0  0  0  0
  -51.2440   -0.9420  -25.2820 C   0  0  0  0  0  3  0  0  0  0  0  0
  -51.3300    0.4360  -28.6350 F   0  0  0  0  0  0  0  0  0  0  0  0
  -50.7940    3.0510  -27.3160 Cl  0  0  0  0  0  0  0  0  0  0  0  0
  -50.7330    2.0300  -16.1400 C   0  0  0  0  0  1  0  0  0  0  0  0
  -49.7360    1.2730  -16.8400 O   0  0  0  0  0  0  0  0  0  0  0  0
  -48.0850   -0.1110  -18.8540 O   0  0  0  0  0  0  0  0  0  0  0  0
  -48.0850   -1.4820  -18.4440 C   0  0  0  0  0  2  0  0  0  0  0  0
  -47.2960   -2.3710  -19.4050 C   0  0  0  0  0  2  0  0  0  0  0  0
  -48.0670   -2.8140  -20.6430 C   0  0  0  0  0  2  0  0  0  0  0  0
  -47.5130   -2.3550  -21.9700 N   0  0  0  0  0  4  0  0  0  0  0  0
  -46.0710   -2.7690  -22.2640 C   0  0  0  0  0  2  0  0  0  0  0  0
  -45.5850   -2.0400  -23.5240 C   0  0  0  0  0  2  0  0  0  0  0  0
  -46.4390   -2.3160  -24.6400 O   0  0  0  0  0  0  0  0  0  0  0  0
  -47.7900   -1.9030  -24.4050 C   0  0  0  0  0  2  0  0  0  0  0  0
  -48.3840   -2.6280  -23.1890 C   0  0  0  0  0  2  0  0  0  0  0  0
  -47.4850   -1.3300  -21.8910 H   0  0  0  0  0  0  0  0  0  0  0  0
  1 22  1  0  0  0  0
  2 23  1  0  0  0  0
  2  1  2  0  0  0  0
  3  2  1  0  0  0  0
  4  3  2  0  0  0  0
  4  5  1  0  0  0  0
  5  6  1  0  0  0  0
  6  1  1  0  0  0  0
  7  5  2  0  0  0  0
  8  7  1  0  0  0  0
  9 10  2  0  0  0  0
  9  8  1  0  0  0  0
 10  4  1  0  0  0  0
 11 12  1  0  0  0  0
 11 10  1  0  0  0  0
 13 11  1  0  0  0  0
 14 13  1  0  0  0  0
 15 14  2  0  0  0  0
 16 17  2  0  0  0  0
 16 15  1  0  0  0  0
 17 18  1  0  0  0  0
 18 13  2  0  0  0  0
 19 16  1  0  0  0  0
 20 15  1  0  0  0  0
 22 21  1  0  0  0  0
 23 24  1  0  0  0  0
 25 24  1  0  0  0  0
 26 25  1  0  0  0  0
 27 33  1  0  0  0  0
 27 26  1  0  0  0  0
 28 27  1  0  0  0  0
 29 28  1  0  0  0  0
 30 31  1  0  0  0  0
 30 29  1  0  0  0  0
 31 32  1  0  0  0  0
 32 27  1  0  0  0  0
M  END
>  <minimizedAffinity>
-8.45267773

$$$$

 OpenBabel08252315103D

 33 36  0  0  0  0  0  0  0  0999 V2000
  -50.0030    1.1220  -18.2050 C   0  0  0  0  0  0  0  0  0  0  0  0
  -49.1940    0.4870  -19.1430 C   0  0  0  0  0  0  0  0  0  0  0  0
  -49.6610    0.3780  -20.4550 C   0  0  0  0  0  3  0  0  0  0  0  0
  -50.8930    0.9610  -20.8560 C   0  0  0  0  0  0  0  0  0  0  0  0
  -51.6450    1.6750  -19.9140 C   0  0  0  0  0  0  0  0  0  0  0  0
  -51.1940    1.7370  -18.6050 C   0  0  0  0  0  2  0  0  0  0  0  0
  -52.7840    2.2990  -20.2140 N   0  0  0  0  0  0  0  0  0  0  0  0
  -53.1980    2.2130  -21.4810 C   0  0  0  0  0  2  0  0  0  0  0  0
  -52.5810    1.5530  -22.4640 N   0  0  0  0  0  0  0  0  0  0  0  0
  -51.4430    0.9060  -22.1530 C   0  0  0  0  0  0  0  0  0  0  0  0
  -50.7900    0.1540  -23.1560 N   0  0  0  0  0  0  0  0  0  0  0  0
  -50.4710   -0.7430  -22.8120 H   0  0  0  0  0  0  0  0  0  0  0  0
  -50.9120    0.2190  -24.5570 C   0  0  0  0  0  0  0  0  0  0  0  0
  -50.8410    1.4700  -25.1910 C   0  0  0  0  0  3  0  0  0  0  0  0
  -50.9660    1.5760  -26.5800 C   0  0  0  0  0  0  0  0  0  0  0  0
  -51.1770    0.4370  -27.3480 C   0  0  0  0  0  0  0  0  0  0  0  0
  -51.2690   -0.8090  -26.7410 C   0  0  0  0  0  3  0  0  0  0  0  0
  -51.1410   -0.9130  -25.3520 C   0  0  0  0  0  3  0  0  0  0  0  0
  -51.3030    0.5180  -28.6800 F   0  0  0  0  0  0  0  0  0  0  0  0
  -50.8570    3.1280  -27.3190 Cl  0  0  0  0  0  0  0  0  0  0  0  0
  -50.6730    1.9140  -16.1630 C   0  0  0  0  0  1  0  0  0  0  0  0
  -49.6530    1.2080  -16.8830 O   0  0  0  0  0  0  0  0  0  0  0  0
  -47.9700   -0.0830  -18.9310 O   0  0  0  0  0  0  0  0  0  0  0  0
  -47.7700   -1.4380  -19.3480 C   0  0  0  0  0  2  0  0  0  0  0  0
  -47.3500   -2.3420  -18.1890 C   0  0  0  0  0  2  0  0  0  0  0  0
  -48.4080   -2.5240  -17.1070 C   0  0  0  0  0  2  0  0  0  0  0  0
  -48.4040   -1.5010  -15.9950 N   0  0  0  0  0  4  0  0  0  0  0  0
  -49.1880   -1.8840  -14.7400 C   0  0  0  0  0  2  0  0  0  0  0  0
  -49.2800   -0.6650  -13.8140 C   0  0  0  0  0  2  0  0  0  0  0  0
  -47.9770   -0.1720  -13.4790 O   0  0  0  0  0  0  0  0  0  0  0  0
  -47.2350    0.2290  -14.6360 C   0  0  0  0  0  2  0  0  0  0  0  0
  -47.0410   -0.9490  -15.6020 C   0  0  0  0  0  2  0  0  0  0  0  0
  -48.9090   -0.6970  -16.3910 H   0  0  0  0  0  0  0  0  0  0  0  0
  1 22  1  0  0  0  0
  2 23  1  0  0  0  0
  2  1  2  0  0  0  0
  3  2  1  0  0  0  0
  4  3  2  0  0  0  0
  4  5  1  0  0  0  0
  5  6  1  0  0  0  0
  6  1  1  0  0  0  0
  7  5  2  0  0  0  0
  8  7  1  0  0  0  0
  9 10  2  0  0  0  0
  9  8  1  0  0  0  0
 10  4  1  0  0  0  0
 11 12  1  0  0  0  0
 11 10  1  0  0  0  0
 13 11  1  0  0  0  0
 14 13  1  0  0  0  0
 15 14  2  0  0  0  0
 16 17  2  0  0  0  0
 16 15  1  0  0  0  0
 17 18  1  0  0  0  0
 18 13  2  0  0  0  0
 19 16  1  0  0  0  0
 20 15  1  0  0  0  0
 22 21  1  0  0  0  0
 24 23  1  0  0  0  0
 24 25  1  0  0  0  0
 25 26  1  0  0  0  0
 26 27  1  0  0  0  0
 27 32  1  0  0  0  0
 27 28  1  0  0  0  0
 28 29  1  0  0  0  0
 29 30  1  0  0  0  0
 31 30  1  0  0  0  0
 32 31  1  0  0  0  0
 33 27  1  0  0  0  0
M  END
>  <minimizedAffinity>
-8.29964638

$$$$

 OpenBabel08252315103D

 33 36  0  0  0  0  0  0  0  0999 V2000
  -49.5460    0.9840  -17.6810 C   0  0  0  0  0  0  0  0  0  0  0  0
  -48.7310    0.5010  -18.7010 C   0  0  0  0  0  0  0  0  0  0  0  0
  -49.2260    0.5120  -20.0070 C   0  0  0  0  0  3  0  0  0  0  0  0
  -50.4970    1.0690  -20.3150 C   0  0  0  0  0  0  0  0  0  0  0  0
  -51.2590    1.6330  -19.2840 C   0  0  0  0  0  0  0  0  0  0  0  0
  -50.7770    1.5740  -17.9860 C   0  0  0  0  0  2  0  0  0  0  0  0
  -52.4370    2.2230  -19.4890 N   0  0  0  0  0  0  0  0  0  0  0  0
  -52.8790    2.2540  -20.7490 C   0  0  0  0  0  2  0  0  0  0  0  0
  -52.2550    1.7410  -21.8110 N   0  0  0  0  0  0  0  0  0  0  0  0
  -51.0780    1.1270  -21.5980 C   0  0  0  0  0  0  0  0  0  0  0  0
  -50.4140    0.5260  -22.6910 N   0  0  0  0  0  0  0  0  0  0  0  0
  -50.0400   -0.3850  -22.4570 H   0  0  0  0  0  0  0  0  0  0  0  0
  -50.5760    0.7380  -24.0740 C   0  0  0  0  0  0  0  0  0  0  0  0
  -50.9470   -0.3410  -24.8920 C   0  0  0  0  0  3  0  0  0  0  0  0
  -51.1080   -0.1720  -26.2700 C   0  0  0  0  0  0  0  0  0  0  0  0
  -50.8880    1.0730  -26.8490 C   0  0  0  0  0  0  0  0  0  0  0  0
  -50.5020    2.1510  -26.0620 C   0  0  0  0  0  3  0  0  0  0  0  0
  -50.3440    1.9810  -24.6830 C   0  0  0  0  0  3  0  0  0  0  0  0
  -51.0340    1.2560  -28.1680 F   0  0  0  0  0  0  0  0  0  0  0  0
  -51.5800   -1.5180  -27.2340 Cl  0  0  0  0  0  0  0  0  0  0  0  0
  -50.1540    1.6040  -15.5610 C   0  0  0  0  0  1  0  0  0  0  0  0
  -49.1660    0.9440  -16.3660 O   0  0  0  0  0  0  0  0  0  0  0  0
  -47.4740   -0.0210  -18.5790 O   0  0  0  0  0  0  0  0  0  0  0  0
  -47.3300   -1.3100  -17.9720 C   0  0  0  0  0  2  0  0  0  0  0  0
  -47.8990   -2.4260  -18.8480 C   0  0  0  0  0  2  0  0  0  0  0  0
  -46.8530   -3.2510  -19.5890 C   0  0  0  0  0  2  0  0  0  0  0  0
  -46.9660   -3.2680  -21.0950 N   0  0  0  0  0  4  0  0  0  0  0  0
  -47.3170   -1.9310  -21.7480 C   0  0  0  0  0  2  0  0  0  0  0  0
  -47.6210   -2.1610  -23.2340 C   0  0  0  0  0  2  0  0  0  0  0  0
  -46.5130   -2.7840  -23.8960 O   0  0  0  0  0  0  0  0  0  0  0  0
  -46.1870   -4.0570  -23.3270 C   0  0  0  0  0  2  0  0  0  0  0  0
  -45.8110   -3.9180  -21.8450 C   0  0  0  0  0  2  0  0  0  0  0  0
  -47.7750   -3.8770  -21.2810 H   0  0  0  0  0  0  0  0  0  0  0  0
  1 22  1  0  0  0  0
  2 23  1  0  0  0  0
  2  1  2  0  0  0  0
  3  2  1  0  0  0  0
  4  3  2  0  0  0  0
  4  5  1  0  0  0  0
  5  6  1  0  0  0  0
  6  1  1  0  0  0  0
  7  5  2  0  0  0  0
  8  7  1  0  0  0  0
  9 10  2  0  0  0  0
  9  8  1  0  0  0  0
 10  4  1  0  0  0  0
 11 12  1  0  0  0  0
 11 10  1  0  0  0  0
 13 11  1  0  0  0  0
 14 13  2  0  0  0  0
 15 14  1  0  0  0  0
 16 15  2  0  0  0  0
 16 17  1  0  0  0  0
 17 18  2  0  0  0  0
 18 13  1  0  0  0  0
 19 16  1  0  0  0  0
 20 15  1  0  0  0  0
 22 21  1  0  0  0  0
 23 24  1  0  0  0  0
 25 24  1  0  0  0  0
 26 25  1  0  0  0  0
 27 26  1  0  0  0  0
 28 27  1  0  0  0  0
 29 28  1  0  0  0  0
 30 31  1  0  0  0  0
 30 29  1  0  0  0  0
 31 32  1  0  0  0  0
 32 27  1  0  0  0  0
 33 27  1  0  0  0  0
M  END
>  <minimizedAffinity>
-8.12747574

$$$$

 OpenBabel08252315103D

 33 36  0  0  1  0  0  0  0  0999 V2000
  -50.7900   -0.1000  -25.3920 C   0  0  0  0  0  0  0  0  0  0  0  0
  -49.7150   -0.3440  -24.5420 C   0  0  0  0  0  0  0  0  0  0  0  0
  -49.7900    0.1250  -23.2280 C   0  0  0  0  0  3  0  0  0  0  0  0
  -50.9570    0.7680  -22.7350 C   0  0  1  0  0  3  0  0  0  0  0  0
  -52.0610    0.9190  -23.5840 C   0  0  0  0  0  0  0  0  0  0  0  0
  -51.9570    0.4910  -24.8980 C   0  0  0  0  0  3  0  0  0  0  0  0
  -53.2130    1.4620  -23.1910 N   0  0  0  0  0  0  0  0  0  0  0  0
  -53.2780    1.8740  -21.9220 C   0  0  0  0  0  2  0  0  0  0  0  0
  -52.2950    1.7990  -21.0220 N   0  0  0  0  0  0  0  0  0  0  0  0
  -51.1270    1.2710  -21.4280 C   0  0  0  0  0  0  0  0  0  0  0  0
  -50.0460    1.2240  -20.5180 N   0  0  0  0  0  0  0  0  0  0  0  0
  -49.1720    1.5010  -20.9480 H   0  0  0  0  0  0  0  0  0  0  0  0
  -50.0440    1.3150  -19.1120 C   0  0  0  0  0  0  0  0  0  0  0  0
  -48.9820    0.7440  -18.3940 C   0  0  0  0  0  3  0  0  0  0  0  0
  -48.9490    0.8060  -16.9970 C   0  0  0  0  0  0  0  0  0  0  0  0
  -49.9830    1.4240  -16.3030 C   0  0  0  0  0  0  0  0  0  0  0  0
  -51.0530    1.9790  -16.9930 C   0  0  0  0  0  3  0  0  0  0  0  0
  -51.0830    1.9200  -18.3900 C   0  0  0  0  0  3  0  0  0  0  0  0
  -49.9720    1.4910  -14.9650 F   0  0  0  0  0  0  0  0  0  0  0  0
  -47.6200    0.1070  -16.1540 Cl  0  0  0  0  0  0  0  0  0  0  0  0
  -51.4460    0.5320  -27.4940 C   0  0  0  0  0  1  0  0  0  0  0  0
  -50.7680   -0.4620  -26.7130 O   0  0  0  0  0  0  0  0  0  0  0  0
  -48.5470   -0.9840  -24.8460 O   0  0  0  0  0  0  0  0  0  0  0  0
  -48.1730   -2.1220  -24.0620 C   0  0  0  0  0  2  0  0  0  0  0  0
  -46.6740   -2.1480  -23.7620 C   0  0  0  0  0  2  0  0  0  0  0  0
  -46.2940   -2.8750  -22.4770 C   0  0  0  0  0  2  0  0  0  0  0  0
  -47.4300   -3.1980  -21.5360 N   0  0  0  0  0  4  0  0  0  0  0  0
  -47.2680   -4.4790  -20.7170 C   0  0  0  0  0  2  0  0  0  0  0  0
  -48.5870   -4.7850  -19.9960 C   0  0  0  0  0  2  0  0  0  0  0  0
  -48.9880   -3.6880  -19.1660 O   0  0  0  0  0  0  0  0  0  0  0  0
  -49.1830   -2.4840  -19.9150 C   0  0  0  0  0  2  0  0  0  0  0  0
  -47.8910   -2.0640  -20.6300 C   0  0  0  0  0  2  0  0  0  0  0  0
  -48.2290   -3.3790  -22.1580 H   0  0  0  0  0  0  0  0  0  0  0  0
  1  6  2  0  0  0  0
  1  2  1  0  0  0  0
  2  3  2  0  0  0  0
  4  3  1  1  0  0  0
  4 10  1  0  0  0  0
  5  7  2  0  0  0  0
  5  4  1  0  0  0  0
  6  5  1  0  0  0  0
  7  8  1  0  0  0  0
  8  9  1  0  0  0  0
 10  9  2  0  0  0  0
 10 11  1  0  0  0  0
 11 13  1  0  0  0  0
 12 11  1  0  0  0  0
 13 14  2  0  0  0  0
 13 18  1  0  0  0  0
 14 15  1  0  0  0  0
 15 16  2  0  0  0  0
 15 20  1  0  0  0  0
 16 19  1  0  0  0  0
 17 16  1  0  0  0  0
 18 17  2  0  0  0  0
 21 22  1  0  0  0  0
 22  1  1  0  0  0  0
 23  2  1  0  0  0  0
 23 24  1  0  0  0  0
 24 25  1  0  0  0  0
 25 26  1  0  0  0  0
 26 27  1  0  0  0  0
 27 28  1  0  0  0  0
 27 32  1  0  0  0  0
 28 29  1  0  0  0  0
 29 30  1  0  0  0  0
 31 30  1  0  0  0  0
 32 31  1  0  0  0  0
 33 27  1  0  0  0  0
M  END
>  <minimizedAffinity>
-7.71874952

$$$$

 OpenBabel08252315103D

 33 36  0  0  0  0  0  0  0  0999 V2000
  -50.4020    1.2420  -20.7120 C   0  0  0  0  0  0  0  0  0  0  0  0
  -49.2880    0.4650  -20.4090 C   0  0  0  0  0  0  0  0  0  0  0  0
  -48.7760   -0.3750  -21.4010 C   0  0  0  0  0  3  0  0  0  0  0  0
  -49.3200   -0.3910  -22.7140 C   0  0  0  0  0  0  0  0  0  0  0  0
  -50.3830    0.4690  -23.0190 C   0  0  0  0  0  0  0  0  0  0  0  0
  -50.9110    1.2630  -22.0150 C   0  0  0  0  0  2  0  0  0  0  0  0
  -50.9190    0.5580  -24.2370 N   0  0  0  0  0  0  0  0  0  0  0  0
  -50.3950   -0.2280  -25.1810 C   0  0  0  0  0  2  0  0  0  0  0  0
  -49.3950   -1.0960  -25.0120 N   0  0  0  0  0  0  0  0  0  0  0  0
  -48.8710   -1.2000  -23.7780 C   0  0  0  0  0  0  0  0  0  0  0  0
  -47.8460   -2.1460  -23.5500 N   0  0  0  0  0  0  0  0  0  0  0  0
  -47.9810   -2.6540  -22.6840 H   0  0  0  0  0  0  0  0  0  0  0  0
  -46.9950   -2.7950  -24.4650 C   0  0  0  0  0  0  0  0  0  0  0  0
  -45.9250   -2.0810  -25.0260 C   0  0  0  0  0  3  0  0  0  0  0  0
  -45.0630   -2.6870  -25.9460 C   0  0  0  0  0  0  0  0  0  0  0  0
  -45.2700   -4.0090  -26.3240 C   0  0  0  0  0  0  0  0  0  0  0  0
  -46.3330   -4.7290  -25.7960 C   0  0  0  0  0  3  0  0  0  0  0  0
  -47.1920   -4.1220  -24.8750 C   0  0  0  0  0  3  0  0  0  0  0  0
  -44.4580   -4.6080  -27.2060 F   0  0  0  0  0  0  0  0  0  0  0  0
  -43.7530   -1.7800  -26.5980 Cl  0  0  0  0  0  0  0  0  0  0  0  0
  -52.3770    1.6350  -19.6200 C   0  0  0  0  0  1  0  0  0  0  0  0
  -51.0100    2.0380  -19.7770 O   0  0  0  0  0  0  0  0  0  0  0  0
  -48.6220    0.4000  -19.2170 O   0  0  0  0  0  0  0  0  0  0  0  0
  -49.3300   -0.0830  -18.0700 C   0  0  0  0  0  2  0  0  0  0  0  0
  -50.0490   -1.4020  -18.3490 C   0  0  0  0  0  2  0  0  0  0  0  0
  -49.3190   -2.6450  -17.8530 C   0  0  0  0  0  2  0  0  0  0  0  0
  -48.5790   -3.4430  -18.9010 N   0  0  0  0  0  4  0  0  0  0  0  0
  -49.3500   -3.7140  -20.1920 C   0  0  0  0  0  2  0  0  0  0  0  0
  -48.5630   -4.7170  -21.0460 C   0  0  0  0  0  2  0  0  0  0  0  0
  -47.2430   -4.2350  -21.3230 O   0  0  0  0  0  0  0  0  0  0  0  0
  -46.4860   -4.0080  -20.1290 C   0  0  0  0  0  2  0  0  0  0  0  0
  -47.1710   -2.9670  -19.2320 C   0  0  0  0  0  2  0  0  0  0  0  0
  -48.4490   -4.3670  -18.4680 H   0  0  0  0  0  0  0  0  0  0  0  0
  1  2  2  0  0  0  0
  1 22  1  0  0  0  0
  2 23  1  0  0  0  0
  3  2  1  0  0  0  0
  4  3  2  0  0  0  0
  5  4  1  0  0  0  0
  5  6  1  0  0  0  0
  6  1  1  0  0  0  0
  7  5  2  0  0  0  0
  8  9  1  0  0  0  0
  8  7  1  0  0  0  0
  9 10  2  0  0  0  0
 10 11  1  0  0  0  0
 10  4  1  0  0  0  0
 11 12  1  0  0  0  0
 13 11  1  0  0  0  0
 14 13  2  0  0  0  0
 15 14  1  0  0  0  0
 16 15  2  0  0  0  0
 16 17  1  0  0  0  0
 17 18  2  0  0  0  0
 18 13  1  0  0  0  0
 19 16  1  0  0  0  0
 20 15  1  0  0  0  0
 22 21  1  0  0  0  0
 23 24  1  0  0  0  0
 25 24  1  0  0  0  0
 25 26  1  0  0  0  0
 27 33  1  0  0  0  0
 27 26  1  0  0  0  0
 28 27  1  0  0  0  0
 29 28  1  0  0  0  0
 30 29  1  0  0  0  0
 30 31  1  0  0  0  0
 31 32  1  0  0  0  0
 32 27  1  0  0  0  0
M  END
>  <minimizedAffinity>
-7.58004999

$$$$

 OpenBabel08252315103D

 33 36  0  0  1  0  0  0  0  0999 V2000
  -50.8210   -0.4780  -25.1480 C   0  0  0  0  0  0  0  0  0  0  0  0
  -49.8020   -0.7610  -24.2430 C   0  0  0  0  0  0  0  0  0  0  0  0
  -49.8690   -0.1910  -22.9700 C   0  0  0  0  0  3  0  0  0  0  0  0
  -50.9800    0.5980  -22.5670 C   0  0  1  0  0  3  0  0  0  0  0  0
  -52.0370    0.7920  -23.4660 C   0  0  0  0  0  0  0  0  0  0  0  0
  -51.9370    0.2600  -24.7410 C   0  0  0  0  0  3  0  0  0  0  0  0
  -53.1400    1.4730  -23.1560 N   0  0  0  0  0  0  0  0  0  0  0  0
  -53.2020    1.9830  -21.9220 C   0  0  0  0  0  2  0  0  0  0  0  0
  -52.2580    1.8800  -20.9840 N   0  0  0  0  0  0  0  0  0  0  0  0
  -51.1380    1.2110  -21.3070 C   0  0  0  0  0  0  0  0  0  0  0  0
  -50.0950    1.1270  -20.3560 N   0  0  0  0  0  0  0  0  0  0  0  0
  -49.1860    1.2840  -20.7720 H   0  0  0  0  0  0  0  0  0  0  0  0
  -50.1270    1.3210  -18.9620 C   0  0  0  0  0  0  0  0  0  0  0  0
  -49.1070    0.7660  -18.1720 C   0  0  0  0  0  3  0  0  0  0  0  0
  -49.1090    0.9290  -16.7830 C   0  0  0  0  0  0  0  0  0  0  0  0
  -50.1350    1.6370  -16.1680 C   0  0  0  0  0  0  0  0  0  0  0  0
  -51.1640    2.1790  -16.9270 C   0  0  0  0  0  3  0  0  0  0  0  0
  -51.1590    2.0170  -18.3160 C   0  0  0  0  0  3  0  0  0  0  0  0
  -50.1560    1.8020  -14.8380 F   0  0  0  0  0  0  0  0  0  0  0  0
  -47.8310    0.2450  -15.8540 Cl  0  0  0  0  0  0  0  0  0  0  0  0
  -51.5630   -0.0610  -27.2750 C   0  0  0  0  0  1  0  0  0  0  0  0
  -50.7960   -0.9380  -26.4390 O   0  0  0  0  0  0  0  0  0  0  0  0
  -48.6950   -1.5340  -24.4570 O   0  0  0  0  0  0  0  0  0  0  0  0
  -47.9830   -2.0290  -23.3190 C   0  0  0  0  0  2  0  0  0  0  0  0
  -47.6070   -3.5040  -23.4700 C   0  0  0  0  0  2  0  0  0  0  0  0
  -46.1140   -3.7680  -23.6320 C   0  0  0  0  0  2  0  0  0  0  0  0
  -45.4410   -3.0800  -24.7960 N   0  0  0  0  0  4  0  0  0  0  0  0
  -44.5940   -1.8580  -24.4440 C   0  0  0  0  0  2  0  0  0  0  0  0
  -44.1760   -1.1460  -25.7370 C   0  0  0  0  0  2  0  0  0  0  0  0
  -43.4640   -2.0340  -26.6070 O   0  0  0  0  0  0  0  0  0  0  0  0
  -44.2500   -3.1700  -26.9830 C   0  0  0  0  0  2  0  0  0  0  0  0
  -44.6700   -3.9820  -25.7500 C   0  0  0  0  0  2  0  0  0  0  0  0
  -46.2210   -2.7120  -25.3570 H   0  0  0  0  0  0  0  0  0  0  0  0
  1  6  2  0  0  0  0
  1  2  1  0  0  0  0
  2  3  2  0  0  0  0
  4  3  1  1  0  0  0
  4 10  1  0  0  0  0
  5  7  2  0  0  0  0
  5  4  1  0  0  0  0
  6  5  1  0  0  0  0
  7  8  1  0  0  0  0
  8  9  1  0  0  0  0
 10  9  2  0  0  0  0
 10 11  1  0  0  0  0
 11 13  1  0  0  0  0
 12 11  1  0  0  0  0
 13 18  2  0  0  0  0
 13 14  1  0  0  0  0
 14 15  2  0  0  0  0
 15 16  1  0  0  0  0
 15 20  1  0  0  0  0
 16 19  1  0  0  0  0
 17 16  2  0  0  0  0
 18 17  1  0  0  0  0
 21 22  1  0  0  0  0
 22  1  1  0  0  0  0
 23  2  1  0  0  0  0
 23 24  1  0  0  0  0
 25 24  1  0  0  0  0
 26 25  1  0  0  0  0
 27 28  1  0  0  0  0
 27 26  1  0  0  0  0
 29 28  1  0  0  0  0
 30 29  1  0  0  0  0
 31 30  1  0  0  0  0
 31 32  1  0  0  0  0
 32 27  1  0  0  0  0
 33 27  1  0  0  0  0
M  END
>  <minimizedAffinity>
-7.54845428

$$$$

 OpenBabel08252315103D

 33 36  0  0  0  0  0  0  0  0999 V2000
  -46.3970   -4.0130  -20.4170 C   0  0  0  0  0  0  0  0  0  0  0  0
  -47.5760   -3.2980  -20.2280 C   0  0  0  0  0  0  0  0  0  0  0  0
  -48.0770   -2.5520  -21.2970 C   0  0  0  0  0  3  0  0  0  0  0  0
  -47.4540   -2.5720  -22.5740 C   0  0  0  0  0  0  0  0  0  0  0  0
  -46.3200   -3.3730  -22.7640 C   0  0  0  0  0  0  0  0  0  0  0  0
  -45.8060   -4.0720  -21.6840 C   0  0  0  0  0  2  0  0  0  0  0  0
  -45.7030   -3.4940  -23.9390 N   0  0  0  0  0  0  0  0  0  0  0  0
  -46.2170   -2.7990  -24.9590 C   0  0  0  0  0  2  0  0  0  0  0  0
  -47.2790   -1.9930  -24.9020 N   0  0  0  0  0  0  0  0  0  0  0  0
  -47.8860   -1.8570  -23.7100 C   0  0  0  0  0  0  0  0  0  0  0  0
  -48.9820   -0.9720  -23.6000 N   0  0  0  0  0  0  0  0  0  0  0  0
  -48.9350   -0.4080  -22.7600 H   0  0  0  0  0  0  0  0  0  0  0  0
  -49.8140   -0.4350  -24.6020 C   0  0  0  0  0  0  0  0  0  0  0  0
  -49.8270    0.9540  -24.8060 C   0  0  0  0  0  3  0  0  0  0  0  0
  -50.6470    1.5250  -25.7850 C   0  0  0  0  0  0  0  0  0  0  0  0
  -51.4710    0.7170  -26.5600 C   0  0  0  0  0  0  0  0  0  0  0  0
  -51.4880   -0.6570  -26.3620 C   0  0  0  0  0  3  0  0  0  0  0  0
  -50.6660   -1.2270  -25.3850 C   0  0  0  0  0  3  0  0  0  0  0  0
  -52.2660    1.2450  -27.5010 F   0  0  0  0  0  0  0  0  0  0  0  0
  -50.6210    3.2320  -26.0130 Cl  0  0  0  0  0  0  0  0  0  0  0  0
  -45.6420   -6.0830  -19.7910 C   0  0  0  0  0  1  0  0  0  0  0  0
  -45.8000   -4.7120  -19.4010 O   0  0  0  0  0  0  0  0  0  0  0  0
  -48.3180   -3.2120  -19.0830 O   0  0  0  0  0  0  0  0  0  0  0  0
  -49.6110   -2.6020  -19.1570 C   0  0  0  0  0  2  0  0  0  0  0  0
  -49.7230   -1.3770  -18.2490 C   0  0  0  0  0  2  0  0  0  0  0  0
  -49.1620   -0.0900  -18.8430 C   0  0  0  0  0  2  0  0  0  0  0  0
  -50.1610    0.8240  -19.5110 N   0  0  0  0  0  4  0  0  0  0  0  0
  -50.7660    0.3040  -20.8150 C   0  0  0  0  0  2  0  0  0  0  0  0
  -51.5710    1.4290  -21.4790 C   0  0  0  0  0  2  0  0  0  0  0  0
  -52.5880    1.9240  -20.6000 O   0  0  0  0  0  0  0  0  0  0  0  0
  -52.0450    2.4510  -19.3850 C   0  0  0  0  0  2  0  0  0  0  0  0
  -51.2640    1.3750  -18.6170 C   0  0  0  0  0  2  0  0  0  0  0  0
  -49.6080    1.6480  -19.7820 H   0  0  0  0  0  0  0  0  0  0  0  0
  1  2  2  0  0  0  0
  1 22  1  0  0  0  0
  2 23  1  0  0  0  0
  3  2  1  0  0  0  0
  4  3  2  0  0  0  0
  5  4  1  0  0  0  0
  5  6  1  0  0  0  0
  6  1  1  0  0  0  0
  7  5  2  0  0  0  0
  8  9  1  0  0  0  0
  8  7  1  0  0  0  0
  9 10  2  0  0  0  0
 10 11  1  0  0  0  0
 10  4  1  0  0  0  0
 11 12  1  0  0  0  0
 13 11  1  0  0  0  0
 14 13  1  0  0  0  0
 15 14  2  0  0  0  0
 16 17  2  0  0  0  0
 16 15  1  0  0  0  0
 17 18  1  0  0  0  0
 18 13  2  0  0  0  0
 19 16  1  0  0  0  0
 20 15  1  0  0  0  0
 21 22  1  0  0  0  0
 24 23  1  0  0  0  0
 24 25  1  0  0  0  0
 26 25  1  0  0  0  0
 27 26  1  0  0  0  0
 27 32  1  0  0  0  0
 28 27  1  0  0  0  0
 29 28  1  0  0  0  0
 29 30  1  0  0  0  0
 30 31  1  0  0  0  0
 31 32  1  0  0  0  0
 33 27  1  0  0  0  0
M  END
>  <minimizedAffinity>
-7.30790329

$$$$

 OpenBabel08252315103D

 33 36  0  0  1  0  0  0  0  0999 V2000
  -46.2340   -5.2270  -23.7110 C   0  0  0  0  0  0  0  0  0  0  0  0
  -46.3940   -3.9420  -24.2220 C   0  0  0  0  0  0  0  0  0  0  0  0
  -47.3010   -3.0860  -23.5920 C   0  0  0  0  0  3  0  0  0  0  0  0
  -47.9930   -3.4750  -22.4140 C   0  0  1  0  0  3  0  0  0  0  0  0
  -47.7450   -4.7410  -21.8660 C   0  0  0  0  0  0  0  0  0  0  0  0
  -46.8790   -5.5970  -22.5260 C   0  0  0  0  0  3  0  0  0  0  0  0
  -48.3100   -5.1680  -20.7370 N   0  0  0  0  0  0  0  0  0  0  0  0
  -49.1480   -4.3240  -20.1290 C   0  0  0  0  0  2  0  0  0  0  0  0
  -49.4760   -3.1030  -20.5570 N   0  0  0  0  0  0  0  0  0  0  0  0
  -48.9220   -2.6830  -21.7080 C   0  0  0  0  0  0  0  0  0  0  0  0
  -49.2860   -1.4160  -22.2180 N   0  0  0  0  0  0  0  0  0  0  0  0
  -49.4500   -1.4400  -23.2170 H   0  0  0  0  0  0  0  0  0  0  0  0
  -49.8800   -0.3170  -21.5680 C   0  0  0  0  0  0  0  0  0  0  0  0
  -51.0910    0.1950  -22.0610 C   0  0  0  0  0  3  0  0  0  0  0  0
  -51.7060    1.2910  -21.4480 C   0  0  0  0  0  0  0  0  0  0  0  0
  -51.1130    1.8950  -20.3460 C   0  0  0  0  0  0  0  0  0  0  0  0
  -49.9060    1.4170  -19.8520 C   0  0  0  0  0  3  0  0  0  0  0  0
  -49.2930    0.3190  -20.4650 C   0  0  0  0  0  3  0  0  0  0  0  0
  -51.6850    2.9480  -19.7460 F   0  0  0  0  0  0  0  0  0  0  0  0
  -53.1990    1.8780  -22.0750 Cl  0  0  0  0  0  0  0  0  0  0  0  0
  -46.1590   -6.8590  -25.3170 C   0  0  0  0  0  1  0  0  0  0  0  0
  -45.4200   -6.1510  -24.3110 O   0  0  0  0  0  0  0  0  0  0  0  0
  -45.7720   -3.4000  -25.3120 O   0  0  0  0  0  0  0  0  0  0  0  0
  -44.8160   -2.3570  -25.1000 C   0  0  0  0  0  2  0  0  0  0  0  0
  -43.7160   -2.3590  -26.1610 C   0  0  0  0  0  2  0  0  0  0  0  0
  -43.9920   -1.4710  -27.3690 C   0  0  0  0  0  2  0  0  0  0  0  0
  -44.0310   -2.1660  -28.7090 N   0  0  0  0  0  4  0  0  0  0  0  0
  -44.8550   -3.4520  -28.7650 C   0  0  0  0  0  2  0  0  0  0  0  0
  -44.6070   -4.1500  -30.1080 C   0  0  0  0  0  2  0  0  0  0  0  0
  -44.9240   -3.2850  -31.2050 O   0  0  0  0  0  0  0  0  0  0  0  0
  -44.1390   -2.0880  -31.1980 C   0  0  0  0  0  2  0  0  0  0  0  0
  -44.3670   -1.2880  -29.9070 C   0  0  0  0  0  2  0  0  0  0  0  0
  -43.0590   -2.4640  -28.8670 H   0  0  0  0  0  0  0  0  0  0  0  0
  1  6  2  0  0  0  0
  2  1  1  0  0  0  0
  2  3  2  0  0  0  0
  4  3  1  1  0  0  0
  4  5  1  0  0  0  0
  4 10  1  0  0  0  0
  5  7  2  0  0  0  0
  6  5  1  0  0  0  0
  7  8  1  0  0  0  0
  9  8  1  0  0  0  0
 10  9  2  0  0  0  0
 11 10  1  0  0  0  0
 11 13  1  0  0  0  0
 12 11  1  0  0  0  0
 13 18  1  0  0  0  0
 14 13  2  0  0  0  0
 14 15  1  0  0  0  0
 15 16  2  0  0  0  0
 16 17  1  0  0  0  0
 16 19  1  0  0  0  0
 18 17  2  0  0  0  0
 20 15  1  0  0  0  0
 21 22  1  0  0  0  0
 22  1  1  0  0  0  0
 23 24  1  0  0  0  0
 23  2  1  0  0  0  0
 25 24  1  0  0  0  0
 26 25  1  0  0  0  0
 27 26  1  0  0  0  0
 28 27  1  0  0  0  0
 29 28  1  0  0  0  0
 30 31  1  0  0  0  0
 30 29  1  0  0  0  0
 31 32  1  0  0  0  0
 32 27  1  0  0  0  0
 33 27  1  0  0  0  0
M  END
>  <minimizedAffinity>
-7.24738693

$$$$

 OpenBabel08252315103D

 33 36  0  0  1  0  0  0  0  0999 V2000
  -50.6270    0.2540  -24.8560 C   0  0  0  0  0  0  0  0  0  0  0  0
  -49.5860   -0.4710  -24.2840 C   0  0  0  0  0  0  0  0  0  0  0  0
  -49.4440   -0.4430  -22.8940 C   0  0  0  0  0  3  0  0  0  0  0  0
  -50.3750    0.2420  -22.0670 C   0  0  1  0  0  3  0  0  0  0  0  0
  -51.4670    0.8870  -22.6620 C   0  0  0  0  0  0  0  0  0  0  0  0
  -51.5710    0.8900  -24.0430 C   0  0  0  0  0  3  0  0  0  0  0  0
  -52.4150    1.5080  -21.9600 N   0  0  0  0  0  0  0  0  0  0  0  0
  -52.2810    1.4960  -20.6310 C   0  0  0  0  0  2  0  0  0  0  0  0
  -51.2830    0.9310  -19.9490 N   0  0  0  0  0  0  0  0  0  0  0  0
  -50.3160    0.3250  -20.6600 C   0  0  0  0  0  0  0  0  0  0  0  0
  -49.2170   -0.2400  -19.9740 N   0  0  0  0  0  0  0  0  0  0  0  0
  -48.3360   -0.0330  -20.4290 H   0  0  0  0  0  0  0  0  0  0  0  0
  -49.0880   -0.6060  -18.6200 C   0  0  0  0  0  0  0  0  0  0  0  0
  -48.4140    0.2560  -17.7410 C   0  0  0  0  0  3  0  0  0  0  0  0
  -48.2580   -0.0770  -16.3920 C   0  0  0  0  0  0  0  0  0  0  0  0
  -48.7600   -1.2800  -15.9100 C   0  0  0  0  0  0  0  0  0  0  0  0
  -49.4140   -2.1570  -16.7660 C   0  0  0  0  0  3  0  0  0  0  0  0
  -49.5720   -1.8210  -18.1140 C   0  0  0  0  0  3  0  0  0  0  0  0
  -48.6190   -1.6190  -14.6220 F   0  0  0  0  0  0  0  0  0  0  0  0
  -47.4380    1.0170  -15.3450 Cl  0  0  0  0  0  0  0  0  0  0  0  0
  -51.5590   -0.7860  -26.6720 C   0  0  0  0  0  1  0  0  0  0  0  0
  -50.7940    0.3370  -26.2130 O   0  0  0  0  0  0  0  0  0  0  0  0
  -48.6400   -1.2150  -24.9310 O   0  0  0  0  0  0  0  0  0  0  0  0
  -47.8700   -2.1490  -24.1680 C   0  0  0  0  0  2  0  0  0  0  0  0
  -46.7850   -2.8240  -25.0070 C   0  0  0  0  0  2  0  0  0  0  0  0
  -46.7990   -4.3480  -24.9590 C   0  0  0  0  0  2  0  0  0  0  0  0
  -46.7590   -5.0550  -26.2930 N   0  0  0  0  0  4  0  0  0  0  0  0
  -45.6110   -4.6560  -27.2190 C   0  0  0  0  0  2  0  0  0  0  0  0
  -45.8400   -5.2790  -28.6030 C   0  0  0  0  0  2  0  0  0  0  0  0
  -45.9600   -6.7030  -28.5130 O   0  0  0  0  0  0  0  0  0  0  0  0
  -47.0530   -7.1050  -27.6790 C   0  0  0  0  0  2  0  0  0  0  0  0
  -46.8800   -6.5720  -26.2500 C   0  0  0  0  0  2  0  0  0  0  0  0
  -47.6120   -4.7370  -26.7730 H   0  0  0  0  0  0  0  0  0  0  0  0
  1  2  1  0  0  0  0
  1  6  2  0  0  0  0
  2  3  2  0  0  0  0
  4  3  1  1  0  0  0
  4 10  1  0  0  0  0
  5  4  1  0  0  0  0
  5  7  2  0  0  0  0
  6  5  1  0  0  0  0
  7  8  1  0  0  0  0
  8  9  1  0  0  0  0
 10 11  1  0  0  0  0
 10  9  2  0  0  0  0
 11 13  1  0  0  0  0
 12 11  1  0  0  0  0
 13 18  2  0  0  0  0
 13 14  1  0  0  0  0
 14 15  2  0  0  0  0
 15 16  1  0  0  0  0
 15 20  1  0  0  0  0
 16 19  1  0  0  0  0
 17 16  2  0  0  0  0
 18 17  1  0  0  0  0
 21 22  1  0  0  0  0
 22  1  1  0  0  0  0
 23  2  1  0  0  0  0
 23 24  1  0  0  0  0
 25 26  1  0  0  0  0
 25 24  1  0  0  0  0
 27 32  1  0  0  0  0
 27 26  1  0  0  0  0
 28 27  1  0  0  0  0
 29 30  1  0  0  0  0
 29 28  1  0  0  0  0
 30 31  1  0  0  0  0
 31 32  1  0  0  0  0
 33 27  1  0  0  0  0
M  END
>  <minimizedAffinity>
-7.24327803

$$$$
