
 OpenBabel08252315103D

 33 36  0  0  0  0  0  0  0  0999 V2000
  -49.8090    1.2180  -18.0820 C   0  0  0  0  0  0  0  0  0  0  0  0
  -48.9910    0.6100  -19.0310 C   0  0  0  0  0  0  0  0  0  0  0  0
  -49.4790    0.4650  -20.3320 C   0  0  0  0  0  3  0  0  0  0  0  0
  -50.7450    0.9880  -20.7130 C   0  0  0  0  0  0  0  0  0  0  0  0
  -51.5090    1.6780  -19.7620 C   0  0  0  0  0  0  0  0  0  0  0  0
  -51.0340    1.7740  -18.4640 C   0  0  0  0  0  2  0  0  0  0  0  0
  -52.6810    2.2450  -20.0450 N   0  0  0  0  0  0  0  0  0  0  0  0
  -53.1170    2.1270  -21.3020 C   0  0  0  0  0  2  0  0  0  0  0  0
  -52.4900    1.4850  -22.2900 N   0  0  0  0  0  0  0  0  0  0  0  0
  -51.3180    0.8940  -21.9970 C   0  0  0  0  0  0  0  0  0  0  0  0
  -50.6530    0.1620  -23.0060 N   0  0  0  0  0  0  0  0  0  0  0  0
  -50.2860   -0.7170  -22.6610 H   0  0  0  0  0  0  0  0  0  0  0  0
  -50.8060    0.2060  -24.4050 C   0  0  0  0  0  0  0  0  0  0  0  0
  -50.7360    1.4460  -25.0600 C   0  0  0  0  0  3  0  0  0  0  0  0
  -50.8920    1.5310  -26.4470 C   0  0  0  0  0  0  0  0  0  0  0  0
  -51.1330    0.3830  -27.1930 C   0  0  0  0  0  0  0  0  0  0  0  0
  -51.2240   -0.8520  -26.5630 C   0  0  0  0  0  3  0  0  0  0  0  0
  -51.0650   -0.9360  -25.1760 C   0  0  0  0  0  3  0  0  0  0  0  0
  -51.2880    0.4440  -28.5220 F   0  0  0  0  0  0  0  0  0  0  0  0
  -50.7840    3.0700  -27.2130 Cl  0  0  0  0  0  0  0  0  0  0  0  0
  -50.5310    1.8570  -16.0050 C   0  0  0  0  0  1  0  0  0  0  0  0
  -49.4360    1.3340  -16.7690 O   0  0  0  0  0  0  0  0  0  0  0  0
  -47.7380    0.0980  -18.8390 O   0  0  0  0  0  0  0  0  0  0  0  0
  -47.5420   -0.8350  -17.7720 C   0  0  0  0  0  2  0  0  0  0  0  0
  -48.1460   -2.2040  -18.0860 C   0  0  0  0  0  2  0  0  0  0  0  0
  -47.3240   -3.0600  -19.0430 C   0  0  0  0  0  2  0  0  0  0  0  0
  -47.8460   -3.1630  -20.4560 N   0  0  0  0  0  4  0  0  0  0  0  0
  -49.3680   -3.1420  -20.6030 C   0  0  0  0  0  2  0  0  0  0  0  0
  -49.7380   -3.4850  -22.0510 C   0  0  0  0  0  2  0  0  0  0  0  0
  -49.1180   -2.5790  -22.9710 O   0  0  0  0  0  0  0  0  0  0  0  0
  -47.6900   -2.6060  -22.8800 C   0  0  0  0  0  2  0  0  0  0  0  0
  -47.2200   -2.2170  -21.4710 C   0  0  0  0  0  2  0  0  0  0  0  0
  -47.5610   -4.1030  -20.7630 H   0  0  0  0  0  0  0  0  0  0  0  0
  1 22  1  0  0  0  0
  2 23  1  0  0  0  0
  2  1  2  0  0  0  0
  3  2  1  0  0  0  0
  4  3  2  0  0  0  0
  4  5  1  0  0  0  0
  5  6  1  0  0  0  0
  6  1  1  0  0  0  0
  7  5  2  0  0  0  0
  8  7  1  0  0  0  0
  9 10  2  0  0  0  0
  9  8  1  0  0  0  0
 10  4  1  0  0  0  0
 11 12  1  0  0  0  0
 11 10  1  0  0  0  0
 13 11  1  0  0  0  0
 14 13  1  0  0  0  0
 15 14  2  0  0  0  0
 16 17  2  0  0  0  0
 16 15  1  0  0  0  0
 17 18  1  0  0  0  0
 18 13  2  0  0  0  0
 19 16  1  0  0  0  0
 20 15  1  0  0  0  0
 22 21  1  0  0  0  0
 23 24  1  0  0  0  0
 25 24  1  0  0  0  0
 26 25  1  0  0  0  0
 27 26  1  0  0  0  0
 28 27  1  0  0  0  0
 29 28  1  0  0  0  0
 30 31  1  0  0  0  0
 30 29  1  0  0  0  0
 31 32  1  0  0  0  0
 32 27  1  0  0  0  0
 33 27  1  0  0  0  0
M  END
>  <minimizedAffinity>
-8.52014351

$$$$
