
 OpenBabel08252315103D

 33 36  0  0  1  0  0  0  0  0999 V2000
  -50.7900   -0.1000  -25.3920 C   0  0  0  0  0  0  0  0  0  0  0  0
  -49.7150   -0.3440  -24.5420 C   0  0  0  0  0  0  0  0  0  0  0  0
  -49.7900    0.1250  -23.2280 C   0  0  0  0  0  3  0  0  0  0  0  0
  -50.9570    0.7680  -22.7350 C   0  0  1  0  0  3  0  0  0  0  0  0
  -52.0610    0.9190  -23.5840 C   0  0  0  0  0  0  0  0  0  0  0  0
  -51.9570    0.4910  -24.8980 C   0  0  0  0  0  3  0  0  0  0  0  0
  -53.2130    1.4620  -23.1910 N   0  0  0  0  0  0  0  0  0  0  0  0
  -53.2780    1.8740  -21.9220 C   0  0  0  0  0  2  0  0  0  0  0  0
  -52.2950    1.7990  -21.0220 N   0  0  0  0  0  0  0  0  0  0  0  0
  -51.1270    1.2710  -21.4280 C   0  0  0  0  0  0  0  0  0  0  0  0
  -50.0460    1.2240  -20.5180 N   0  0  0  0  0  0  0  0  0  0  0  0
  -49.1720    1.5010  -20.9480 H   0  0  0  0  0  0  0  0  0  0  0  0
  -50.0440    1.3150  -19.1120 C   0  0  0  0  0  0  0  0  0  0  0  0
  -48.9820    0.7440  -18.3940 C   0  0  0  0  0  3  0  0  0  0  0  0
  -48.9490    0.8060  -16.9970 C   0  0  0  0  0  0  0  0  0  0  0  0
  -49.9830    1.4240  -16.3030 C   0  0  0  0  0  0  0  0  0  0  0  0
  -51.0530    1.9790  -16.9930 C   0  0  0  0  0  3  0  0  0  0  0  0
  -51.0830    1.9200  -18.3900 C   0  0  0  0  0  3  0  0  0  0  0  0
  -49.9720    1.4910  -14.9650 F   0  0  0  0  0  0  0  0  0  0  0  0
  -47.6200    0.1070  -16.1540 Cl  0  0  0  0  0  0  0  0  0  0  0  0
  -51.4460    0.5320  -27.4940 C   0  0  0  0  0  1  0  0  0  0  0  0
  -50.7680   -0.4620  -26.7130 O   0  0  0  0  0  0  0  0  0  0  0  0
  -48.5470   -0.9840  -24.8460 O   0  0  0  0  0  0  0  0  0  0  0  0
  -48.1730   -2.1220  -24.0620 C   0  0  0  0  0  2  0  0  0  0  0  0
  -46.6740   -2.1480  -23.7620 C   0  0  0  0  0  2  0  0  0  0  0  0
  -46.2940   -2.8750  -22.4770 C   0  0  0  0  0  2  0  0  0  0  0  0
  -47.4300   -3.1980  -21.5360 N   0  0  0  0  0  4  0  0  0  0  0  0
  -47.2680   -4.4790  -20.7170 C   0  0  0  0  0  2  0  0  0  0  0  0
  -48.5870   -4.7850  -19.9960 C   0  0  0  0  0  2  0  0  0  0  0  0
  -48.9880   -3.6880  -19.1660 O   0  0  0  0  0  0  0  0  0  0  0  0
  -49.1830   -2.4840  -19.9150 C   0  0  0  0  0  2  0  0  0  0  0  0
  -47.8910   -2.0640  -20.6300 C   0  0  0  0  0  2  0  0  0  0  0  0
  -48.2290   -3.3790  -22.1580 H   0  0  0  0  0  0  0  0  0  0  0  0
  1  6  2  0  0  0  0
  1  2  1  0  0  0  0
  2  3  2  0  0  0  0
  4  3  1  1  0  0  0
  4 10  1  0  0  0  0
  5  7  2  0  0  0  0
  5  4  1  0  0  0  0
  6  5  1  0  0  0  0
  7  8  1  0  0  0  0
  8  9  1  0  0  0  0
 10  9  2  0  0  0  0
 10 11  1  0  0  0  0
 11 13  1  0  0  0  0
 12 11  1  0  0  0  0
 13 14  2  0  0  0  0
 13 18  1  0  0  0  0
 14 15  1  0  0  0  0
 15 16  2  0  0  0  0
 15 20  1  0  0  0  0
 16 19  1  0  0  0  0
 17 16  1  0  0  0  0
 18 17  2  0  0  0  0
 21 22  1  0  0  0  0
 22  1  1  0  0  0  0
 23  2  1  0  0  0  0
 23 24  1  0  0  0  0
 24 25  1  0  0  0  0
 25 26  1  0  0  0  0
 26 27  1  0  0  0  0
 27 28  1  0  0  0  0
 27 32  1  0  0  0  0
 28 29  1  0  0  0  0
 29 30  1  0  0  0  0
 31 30  1  0  0  0  0
 32 31  1  0  0  0  0
 33 27  1  0  0  0  0
M  END
>  <minimizedAffinity>
-7.71874952

$$$$
