
 OpenBabel08252315103D

 33 36  0  0  0  0  0  0  0  0999 V2000
  -50.4020    1.2420  -20.7120 C   0  0  0  0  0  0  0  0  0  0  0  0
  -49.2880    0.4650  -20.4090 C   0  0  0  0  0  0  0  0  0  0  0  0
  -48.7760   -0.3750  -21.4010 C   0  0  0  0  0  3  0  0  0  0  0  0
  -49.3200   -0.3910  -22.7140 C   0  0  0  0  0  0  0  0  0  0  0  0
  -50.3830    0.4690  -23.0190 C   0  0  0  0  0  0  0  0  0  0  0  0
  -50.9110    1.2630  -22.0150 C   0  0  0  0  0  2  0  0  0  0  0  0
  -50.9190    0.5580  -24.2370 N   0  0  0  0  0  0  0  0  0  0  0  0
  -50.3950   -0.2280  -25.1810 C   0  0  0  0  0  2  0  0  0  0  0  0
  -49.3950   -1.0960  -25.0120 N   0  0  0  0  0  0  0  0  0  0  0  0
  -48.8710   -1.2000  -23.7780 C   0  0  0  0  0  0  0  0  0  0  0  0
  -47.8460   -2.1460  -23.5500 N   0  0  0  0  0  0  0  0  0  0  0  0
  -47.9810   -2.6540  -22.6840 H   0  0  0  0  0  0  0  0  0  0  0  0
  -46.9950   -2.7950  -24.4650 C   0  0  0  0  0  0  0  0  0  0  0  0
  -45.9250   -2.0810  -25.0260 C   0  0  0  0  0  3  0  0  0  0  0  0
  -45.0630   -2.6870  -25.9460 C   0  0  0  0  0  0  0  0  0  0  0  0
  -45.2700   -4.0090  -26.3240 C   0  0  0  0  0  0  0  0  0  0  0  0
  -46.3330   -4.7290  -25.7960 C   0  0  0  0  0  3  0  0  0  0  0  0
  -47.1920   -4.1220  -24.8750 C   0  0  0  0  0  3  0  0  0  0  0  0
  -44.4580   -4.6080  -27.2060 F   0  0  0  0  0  0  0  0  0  0  0  0
  -43.7530   -1.7800  -26.5980 Cl  0  0  0  0  0  0  0  0  0  0  0  0
  -52.3770    1.6350  -19.6200 C   0  0  0  0  0  1  0  0  0  0  0  0
  -51.0100    2.0380  -19.7770 O   0  0  0  0  0  0  0  0  0  0  0  0
  -48.6220    0.4000  -19.2170 O   0  0  0  0  0  0  0  0  0  0  0  0
  -49.3300   -0.0830  -18.0700 C   0  0  0  0  0  2  0  0  0  0  0  0
  -50.0490   -1.4020  -18.3490 C   0  0  0  0  0  2  0  0  0  0  0  0
  -49.3190   -2.6450  -17.8530 C   0  0  0  0  0  2  0  0  0  0  0  0
  -48.5790   -3.4430  -18.9010 N   0  0  0  0  0  4  0  0  0  0  0  0
  -49.3500   -3.7140  -20.1920 C   0  0  0  0  0  2  0  0  0  0  0  0
  -48.5630   -4.7170  -21.0460 C   0  0  0  0  0  2  0  0  0  0  0  0
  -47.2430   -4.2350  -21.3230 O   0  0  0  0  0  0  0  0  0  0  0  0
  -46.4860   -4.0080  -20.1290 C   0  0  0  0  0  2  0  0  0  0  0  0
  -47.1710   -2.9670  -19.2320 C   0  0  0  0  0  2  0  0  0  0  0  0
  -48.4490   -4.3670  -18.4680 H   0  0  0  0  0  0  0  0  0  0  0  0
  1  2  2  0  0  0  0
  1 22  1  0  0  0  0
  2 23  1  0  0  0  0
  3  2  1  0  0  0  0
  4  3  2  0  0  0  0
  5  4  1  0  0  0  0
  5  6  1  0  0  0  0
  6  1  1  0  0  0  0
  7  5  2  0  0  0  0
  8  9  1  0  0  0  0
  8  7  1  0  0  0  0
  9 10  2  0  0  0  0
 10 11  1  0  0  0  0
 10  4  1  0  0  0  0
 11 12  1  0  0  0  0
 13 11  1  0  0  0  0
 14 13  2  0  0  0  0
 15 14  1  0  0  0  0
 16 15  2  0  0  0  0
 16 17  1  0  0  0  0
 17 18  2  0  0  0  0
 18 13  1  0  0  0  0
 19 16  1  0  0  0  0
 20 15  1  0  0  0  0
 22 21  1  0  0  0  0
 23 24  1  0  0  0  0
 25 24  1  0  0  0  0
 25 26  1  0  0  0  0
 27 33  1  0  0  0  0
 27 26  1  0  0  0  0
 28 27  1  0  0  0  0
 29 28  1  0  0  0  0
 30 29  1  0  0  0  0
 30 31  1  0  0  0  0
 31 32  1  0  0  0  0
 32 27  1  0  0  0  0
M  END
>  <minimizedAffinity>
-7.58004999

$$$$
