
 OpenBabel08252315103D

 33 36  0  0  1  0  0  0  0  0999 V2000
  -50.6270    0.2540  -24.8560 C   0  0  0  0  0  0  0  0  0  0  0  0
  -49.5860   -0.4710  -24.2840 C   0  0  0  0  0  0  0  0  0  0  0  0
  -49.4440   -0.4430  -22.8940 C   0  0  0  0  0  3  0  0  0  0  0  0
  -50.3750    0.2420  -22.0670 C   0  0  1  0  0  3  0  0  0  0  0  0
  -51.4670    0.8870  -22.6620 C   0  0  0  0  0  0  0  0  0  0  0  0
  -51.5710    0.8900  -24.0430 C   0  0  0  0  0  3  0  0  0  0  0  0
  -52.4150    1.5080  -21.9600 N   0  0  0  0  0  0  0  0  0  0  0  0
  -52.2810    1.4960  -20.6310 C   0  0  0  0  0  2  0  0  0  0  0  0
  -51.2830    0.9310  -19.9490 N   0  0  0  0  0  0  0  0  0  0  0  0
  -50.3160    0.3250  -20.6600 C   0  0  0  0  0  0  0  0  0  0  0  0
  -49.2170   -0.2400  -19.9740 N   0  0  0  0  0  0  0  0  0  0  0  0
  -48.3360   -0.0330  -20.4290 H   0  0  0  0  0  0  0  0  0  0  0  0
  -49.0880   -0.6060  -18.6200 C   0  0  0  0  0  0  0  0  0  0  0  0
  -48.4140    0.2560  -17.7410 C   0  0  0  0  0  3  0  0  0  0  0  0
  -48.2580   -0.0770  -16.3920 C   0  0  0  0  0  0  0  0  0  0  0  0
  -48.7600   -1.2800  -15.9100 C   0  0  0  0  0  0  0  0  0  0  0  0
  -49.4140   -2.1570  -16.7660 C   0  0  0  0  0  3  0  0  0  0  0  0
  -49.5720   -1.8210  -18.1140 C   0  0  0  0  0  3  0  0  0  0  0  0
  -48.6190   -1.6190  -14.6220 F   0  0  0  0  0  0  0  0  0  0  0  0
  -47.4380    1.0170  -15.3450 Cl  0  0  0  0  0  0  0  0  0  0  0  0
  -51.5590   -0.7860  -26.6720 C   0  0  0  0  0  1  0  0  0  0  0  0
  -50.7940    0.3370  -26.2130 O   0  0  0  0  0  0  0  0  0  0  0  0
  -48.6400   -1.2150  -24.9310 O   0  0  0  0  0  0  0  0  0  0  0  0
  -47.8700   -2.1490  -24.1680 C   0  0  0  0  0  2  0  0  0  0  0  0
  -46.7850   -2.8240  -25.0070 C   0  0  0  0  0  2  0  0  0  0  0  0
  -46.7990   -4.3480  -24.9590 C   0  0  0  0  0  2  0  0  0  0  0  0
  -46.7590   -5.0550  -26.2930 N   0  0  0  0  0  4  0  0  0  0  0  0
  -45.6110   -4.6560  -27.2190 C   0  0  0  0  0  2  0  0  0  0  0  0
  -45.8400   -5.2790  -28.6030 C   0  0  0  0  0  2  0  0  0  0  0  0
  -45.9600   -6.7030  -28.5130 O   0  0  0  0  0  0  0  0  0  0  0  0
  -47.0530   -7.1050  -27.6790 C   0  0  0  0  0  2  0  0  0  0  0  0
  -46.8800   -6.5720  -26.2500 C   0  0  0  0  0  2  0  0  0  0  0  0
  -47.6120   -4.7370  -26.7730 H   0  0  0  0  0  0  0  0  0  0  0  0
  1  2  1  0  0  0  0
  1  6  2  0  0  0  0
  2  3  2  0  0  0  0
  4  3  1  1  0  0  0
  4 10  1  0  0  0  0
  5  4  1  0  0  0  0
  5  7  2  0  0  0  0
  6  5  1  0  0  0  0
  7  8  1  0  0  0  0
  8  9  1  0  0  0  0
 10 11  1  0  0  0  0
 10  9  2  0  0  0  0
 11 13  1  0  0  0  0
 12 11  1  0  0  0  0
 13 18  2  0  0  0  0
 13 14  1  0  0  0  0
 14 15  2  0  0  0  0
 15 16  1  0  0  0  0
 15 20  1  0  0  0  0
 16 19  1  0  0  0  0
 17 16  2  0  0  0  0
 18 17  1  0  0  0  0
 21 22  1  0  0  0  0
 22  1  1  0  0  0  0
 23  2  1  0  0  0  0
 23 24  1  0  0  0  0
 25 26  1  0  0  0  0
 25 24  1  0  0  0  0
 27 32  1  0  0  0  0
 27 26  1  0  0  0  0
 28 27  1  0  0  0  0
 29 30  1  0  0  0  0
 29 28  1  0  0  0  0
 30 31  1  0  0  0  0
 31 32  1  0  0  0  0
 33 27  1  0  0  0  0
M  END
>  <minimizedAffinity>
-7.24327803

$$$$
