
 OpenBabel08252315103D

 33 36  0  0  1  0  0  0  0  0999 V2000
  -46.2340   -5.2270  -23.7110 C   0  0  0  0  0  0  0  0  0  0  0  0
  -46.3940   -3.9420  -24.2220 C   0  0  0  0  0  0  0  0  0  0  0  0
  -47.3010   -3.0860  -23.5920 C   0  0  0  0  0  3  0  0  0  0  0  0
  -47.9930   -3.4750  -22.4140 C   0  0  1  0  0  3  0  0  0  0  0  0
  -47.7450   -4.7410  -21.8660 C   0  0  0  0  0  0  0  0  0  0  0  0
  -46.8790   -5.5970  -22.5260 C   0  0  0  0  0  3  0  0  0  0  0  0
  -48.3100   -5.1680  -20.7370 N   0  0  0  0  0  0  0  0  0  0  0  0
  -49.1480   -4.3240  -20.1290 C   0  0  0  0  0  2  0  0  0  0  0  0
  -49.4760   -3.1030  -20.5570 N   0  0  0  0  0  0  0  0  0  0  0  0
  -48.9220   -2.6830  -21.7080 C   0  0  0  0  0  0  0  0  0  0  0  0
  -49.2860   -1.4160  -22.2180 N   0  0  0  0  0  0  0  0  0  0  0  0
  -49.4500   -1.4400  -23.2170 H   0  0  0  0  0  0  0  0  0  0  0  0
  -49.8800   -0.3170  -21.5680 C   0  0  0  0  0  0  0  0  0  0  0  0
  -51.0910    0.1950  -22.0610 C   0  0  0  0  0  3  0  0  0  0  0  0
  -51.7060    1.2910  -21.4480 C   0  0  0  0  0  0  0  0  0  0  0  0
  -51.1130    1.8950  -20.3460 C   0  0  0  0  0  0  0  0  0  0  0  0
  -49.9060    1.4170  -19.8520 C   0  0  0  0  0  3  0  0  0  0  0  0
  -49.2930    0.3190  -20.4650 C   0  0  0  0  0  3  0  0  0  0  0  0
  -51.6850    2.9480  -19.7460 F   0  0  0  0  0  0  0  0  0  0  0  0
  -53.1990    1.8780  -22.0750 Cl  0  0  0  0  0  0  0  0  0  0  0  0
  -46.1590   -6.8590  -25.3170 C   0  0  0  0  0  1  0  0  0  0  0  0
  -45.4200   -6.1510  -24.3110 O   0  0  0  0  0  0  0  0  0  0  0  0
  -45.7720   -3.4000  -25.3120 O   0  0  0  0  0  0  0  0  0  0  0  0
  -44.8160   -2.3570  -25.1000 C   0  0  0  0  0  2  0  0  0  0  0  0
  -43.7160   -2.3590  -26.1610 C   0  0  0  0  0  2  0  0  0  0  0  0
  -43.9920   -1.4710  -27.3690 C   0  0  0  0  0  2  0  0  0  0  0  0
  -44.0310   -2.1660  -28.7090 N   0  0  0  0  0  4  0  0  0  0  0  0
  -44.8550   -3.4520  -28.7650 C   0  0  0  0  0  2  0  0  0  0  0  0
  -44.6070   -4.1500  -30.1080 C   0  0  0  0  0  2  0  0  0  0  0  0
  -44.9240   -3.2850  -31.2050 O   0  0  0  0  0  0  0  0  0  0  0  0
  -44.1390   -2.0880  -31.1980 C   0  0  0  0  0  2  0  0  0  0  0  0
  -44.3670   -1.2880  -29.9070 C   0  0  0  0  0  2  0  0  0  0  0  0
  -43.0590   -2.4640  -28.8670 H   0  0  0  0  0  0  0  0  0  0  0  0
  1  6  2  0  0  0  0
  2  1  1  0  0  0  0
  2  3  2  0  0  0  0
  4  3  1  1  0  0  0
  4  5  1  0  0  0  0
  4 10  1  0  0  0  0
  5  7  2  0  0  0  0
  6  5  1  0  0  0  0
  7  8  1  0  0  0  0
  9  8  1  0  0  0  0
 10  9  2  0  0  0  0
 11 10  1  0  0  0  0
 11 13  1  0  0  0  0
 12 11  1  0  0  0  0
 13 18  1  0  0  0  0
 14 13  2  0  0  0  0
 14 15  1  0  0  0  0
 15 16  2  0  0  0  0
 16 17  1  0  0  0  0
 16 19  1  0  0  0  0
 18 17  2  0  0  0  0
 20 15  1  0  0  0  0
 21 22  1  0  0  0  0
 22  1  1  0  0  0  0
 23 24  1  0  0  0  0
 23  2  1  0  0  0  0
 25 24  1  0  0  0  0
 26 25  1  0  0  0  0
 27 26  1  0  0  0  0
 28 27  1  0  0  0  0
 29 28  1  0  0  0  0
 30 31  1  0  0  0  0
 30 29  1  0  0  0  0
 31 32  1  0  0  0  0
 32 27  1  0  0  0  0
 33 27  1  0  0  0  0
M  END
>  <minimizedAffinity>
-7.24738693

$$$$
