
 OpenBabel08252315103D

 33 36  0  0  1  0  0  0  0  0999 V2000
  -50.8210   -0.4780  -25.1480 C   0  0  0  0  0  0  0  0  0  0  0  0
  -49.8020   -0.7610  -24.2430 C   0  0  0  0  0  0  0  0  0  0  0  0
  -49.8690   -0.1910  -22.9700 C   0  0  0  0  0  3  0  0  0  0  0  0
  -50.9800    0.5980  -22.5670 C   0  0  1  0  0  3  0  0  0  0  0  0
  -52.0370    0.7920  -23.4660 C   0  0  0  0  0  0  0  0  0  0  0  0
  -51.9370    0.2600  -24.7410 C   0  0  0  0  0  3  0  0  0  0  0  0
  -53.1400    1.4730  -23.1560 N   0  0  0  0  0  0  0  0  0  0  0  0
  -53.2020    1.9830  -21.9220 C   0  0  0  0  0  2  0  0  0  0  0  0
  -52.2580    1.8800  -20.9840 N   0  0  0  0  0  0  0  0  0  0  0  0
  -51.1380    1.2110  -21.3070 C   0  0  0  0  0  0  0  0  0  0  0  0
  -50.0950    1.1270  -20.3560 N   0  0  0  0  0  0  0  0  0  0  0  0
  -49.1860    1.2840  -20.7720 H   0  0  0  0  0  0  0  0  0  0  0  0
  -50.1270    1.3210  -18.9620 C   0  0  0  0  0  0  0  0  0  0  0  0
  -49.1070    0.7660  -18.1720 C   0  0  0  0  0  3  0  0  0  0  0  0
  -49.1090    0.9290  -16.7830 C   0  0  0  0  0  0  0  0  0  0  0  0
  -50.1350    1.6370  -16.1680 C   0  0  0  0  0  0  0  0  0  0  0  0
  -51.1640    2.1790  -16.9270 C   0  0  0  0  0  3  0  0  0  0  0  0
  -51.1590    2.0170  -18.3160 C   0  0  0  0  0  3  0  0  0  0  0  0
  -50.1560    1.8020  -14.8380 F   0  0  0  0  0  0  0  0  0  0  0  0
  -47.8310    0.2450  -15.8540 Cl  0  0  0  0  0  0  0  0  0  0  0  0
  -51.5630   -0.0610  -27.2750 C   0  0  0  0  0  1  0  0  0  0  0  0
  -50.7960   -0.9380  -26.4390 O   0  0  0  0  0  0  0  0  0  0  0  0
  -48.6950   -1.5340  -24.4570 O   0  0  0  0  0  0  0  0  0  0  0  0
  -47.9830   -2.0290  -23.3190 C   0  0  0  0  0  2  0  0  0  0  0  0
  -47.6070   -3.5040  -23.4700 C   0  0  0  0  0  2  0  0  0  0  0  0
  -46.1140   -3.7680  -23.6320 C   0  0  0  0  0  2  0  0  0  0  0  0
  -45.4410   -3.0800  -24.7960 N   0  0  0  0  0  4  0  0  0  0  0  0
  -44.5940   -1.8580  -24.4440 C   0  0  0  0  0  2  0  0  0  0  0  0
  -44.1760   -1.1460  -25.7370 C   0  0  0  0  0  2  0  0  0  0  0  0
  -43.4640   -2.0340  -26.6070 O   0  0  0  0  0  0  0  0  0  0  0  0
  -44.2500   -3.1700  -26.9830 C   0  0  0  0  0  2  0  0  0  0  0  0
  -44.6700   -3.9820  -25.7500 C   0  0  0  0  0  2  0  0  0  0  0  0
  -46.2210   -2.7120  -25.3570 H   0  0  0  0  0  0  0  0  0  0  0  0
  1  6  2  0  0  0  0
  1  2  1  0  0  0  0
  2  3  2  0  0  0  0
  4  3  1  1  0  0  0
  4 10  1  0  0  0  0
  5  7  2  0  0  0  0
  5  4  1  0  0  0  0
  6  5  1  0  0  0  0
  7  8  1  0  0  0  0
  8  9  1  0  0  0  0
 10  9  2  0  0  0  0
 10 11  1  0  0  0  0
 11 13  1  0  0  0  0
 12 11  1  0  0  0  0
 13 18  2  0  0  0  0
 13 14  1  0  0  0  0
 14 15  2  0  0  0  0
 15 16  1  0  0  0  0
 15 20  1  0  0  0  0
 16 19  1  0  0  0  0
 17 16  2  0  0  0  0
 18 17  1  0  0  0  0
 21 22  1  0  0  0  0
 22  1  1  0  0  0  0
 23  2  1  0  0  0  0
 23 24  1  0  0  0  0
 25 24  1  0  0  0  0
 26 25  1  0  0  0  0
 27 28  1  0  0  0  0
 27 26  1  0  0  0  0
 29 28  1  0  0  0  0
 30 29  1  0  0  0  0
 31 30  1  0  0  0  0
 31 32  1  0  0  0  0
 32 27  1  0  0  0  0
 33 27  1  0  0  0  0
M  END
>  <minimizedAffinity>
-7.54845428

$$$$
